/*--------------------------------*- C++ -*----------------------------------*\
  =========                 |
  \\      /  F ield         | OpenFOAM: The Open Source CFD Toolbox
   \\    /   O peration     | Website:  https://openfoam.org
    \\  /    A nd           | Version:  8
     \\/     M anipulation  |
\*---------------------------------------------------------------------------*/
FoamFile
{
    version     2.0;
    format      ascii;
    class       dictionary;
    object      surfaceFeaturesDict;
}
// * * * * * * * * * * * * * * * * * * * * * * * * * * * * * * * * * * * * * //

surfaces
(
    "rotating_region.stl"
    "ADT_chamber.stl"
    "CFan.stl"
);

// Identify a feature when angle between faces < includedAngle
includedAngle   170;

trimFeatures
{
    // Remove features with fewer than the specified number of edges
    minElem         10;
}

// ************************************************************************* //
